                    U.  S.  G E O L O G I C A L  S U R V E Y

                     E A R T H Q U A K E  D A T A  B A S E



 FILE CREATED:  Mon Jan 21 14:22:57 2008
 Circle Search   Earthquakes=      2592
 Circle Center Point Latitude:   62.499N  Longitude:   114.670W
 Radius:   20014.199 km
 Catalog Used: Preliminary Determination of Epicenters
 Date Range: Year:    2007  -   2007   Month: 01/Day: 01   Month: 12/Day: 31
 Magnitude Range:   5.0  -   9.0
 Depth Range:    0  -  900
 Data Selection: Historical & Preliminary Data


 CAT   YEAR   MO DA ORIG TIME   LAT    LONG  DEP  MAGNITUDE    DIST
                                                               km
                                                              

 PDE   2007   01 01 003145.02   1.23   67.12  10 5.40 Mw CMT  12937
 PDE   2007   01 01 003706.57  -5.57  133.85  26 5.20 Mw CMT  11639
 PDE   2007   01 01 010513.47  32.80  -39.82  10 5.00 Mw CMT   6064
 PDE   2007   01 01 023517.17 -18.30 -174.78  35 5.00 mb GS   10360
 PDE   2007   01 02 031311.78  27.11  140.12 354 5.20 Mw CMT   8108
 PDE   2007   01 02 133641.95  47.35  155.62  10 5.10 Mw CMT   5488
 PDE   2007   01 02 161347.60 -17.52 -174.42 122 5.20 mb GS   10266
 PDE   2007   01 02 174354.10 -11.24  -79.29  35 5.00 mb GS    8719
 PDE   2007   01 02 195643.62  18.74 -107.75  10 5.30 MD NM    4886
 PDE   2007   01 02 201904.06  47.39  155.66  10 5.00 mb GS    5482
 PDE   2007   01 03 124730.33   5.45   94.35  30 5.40 mb GS   12078
 PDE   2007   01 03 125938.81  -5.01  151.80  65 5.20 mb GS   10672
 PDE   2007   01 03 190425.37   1.72 -102.20  10 5.20 Mw CMT   6816
 PDE   2007   01 03 232233.48 -10.36  161.14 115 5.20 mb GS   10714
 PDE   2007   01 03 233122.10  -5.44  101.41  30 5.40 mb GS   13022
 PDE   2007   01 03 234815.92  -5.45  101.48  30 5.30 mb GS   13021
 PDE   2007   01 04 092734.89 -17.36  -70.24 113 5.00 mb GS    9656
 PDE   2007   01 04 113634.66  12.29  144.09  30 5.00 Mw CMT   9370
 PDE   2007   01 04 120716.82 -23.26  170.40  52 5.00 mb GS   11522
 PDE   2007   01 04 150814.30 -23.06  169.93   1 5.00 mb GS   11524
 PDE   2007   01 04 205103.71 -22.97 -176.16  75 5.10 mb GS   10891
 PDE   2007   01 05 023001.30   0.55  -25.37  10 5.00 Mw CMT   9911
 PDE   2007   01 05 115404.88   0.25   97.96  30 5.30 Mw S    12531
 PDE   2007   01 05 152328.37  12.23  144.02  14 5.30 Mw CMT   9380
 PDE   2007   01 05 165222.37  55.76 -156.06  18 5.80 Mw S     2439
 PDE   2007   01 06 053944.11 -60.01  153.36  10 5.00 Mw CMT  15634
 PDE   2007   01 06 062722.22  -1.46  -77.73 180 5.00 Mw CMT   7733
 PDE   2007   01 06 083220.32 -59.72  -26.68  77 5.00 mb GS   15451
 PDE   2007   01 06 105412.18  11.67  125.90  66 5.30 mb GS   10290
 PDE   2007   01 06 111020.34 -20.83 -174.39  33 5.10 mb GS   10600
 PDE   2007   01 06 205505.12   0.07  123.67 122 5.20 mb GS   11561
 PDE   2007   01 07 080139.98  47.05  153.88  10 5.00 mb GS    5594
 PDE   2007   01 07 101437.61 -17.67   65.73  10 5.10 Mw CMT  15024
 PDE   2007   01 07 105530.10 -35.41  -71.30 109 5.00 mb GS   11511
 PDE   2007   01 07 153344.19  54.90 -156.97  10 5.00 mb GS    2542
 PDE   2007   01 08 022204.55  -9.96  160.91  35 5.30 mb GS   10687
 PDE   2007   01 08 060348.26 -16.59  176.38  47 5.10 Mw CMT  10583
 PDE   2007   01 08 124840.51   8.08   92.44  11 6.20 Ms GS   11845
 PDE   2007   01 08 172149.91  39.80   70.31  16 6.10 Ms GS    8664
 PDE   2007   01 08 201206.64  44.32  143.97  26 5.10 mb GS    6285
 PDE   2007   01 08 205220.64 -18.58 -177.85 406 6.30 Mw S    10521
 PDE   2007   01 09 052722.74  19.19   95.29 104 5.10 mb GS   10579
 PDE   2007   01 09 113515.59 -56.31 -142.30  10 5.30 Mw CMT  13378
 PDE   2007   01 09 154933.48  59.42 -137.12  10 5.80 mb GS    1257
 PDE   2007   01 09 202846.15  46.23  153.01  10 5.10 mb GS    5707
 PDE   2007   01 09 205223.87  14.37   56.47  10 5.20 Mw CMT  11452
 PDE   2007   01 10 100118.95  53.67 -167.72  27 5.40 mb GS    3179
 PDE   2007   01 10 181906.32  46.43  153.36   9 5.10 mb GS    5673
 PDE   2007   01 11 042726.32  60.96  165.48  10 5.20 mb GS    3957
 PDE   2007   01 11 085019.68 -14.55  168.04  20 5.10 Mw CMT  10780
 PDE   2007   01 11 143120.74  -3.65  127.28  13 6.00 Mw CMT  11767
 PDE   2007   01 11 203447.35  43.47  147.08  10 5.50 mb GS    6227
 PDE   2007   01 12 190846.90  14.02  -93.55  30 5.00 Mw CMT   5633
 PDE   2007   01 13 042321.16  46.24  154.52  10 8.20 Ms GS    5636
 PDE   2007   01 13 043531.23  46.70  155.49  10 5.10 mb GS    5550
 PDE   2007   01 13 043707.67  46.33  155.17  10 5.50 mb GS    5598
 PDE   2007   01 13 043920.60  46.81  156.49  10 5.40 mb GS    5495
 PDE   2007   01 13 053023.57  47.02  156.04  10 5.00 mb GS    5497
 PDE   2007   01 13 053441.67  46.47  154.98  10 5.10 mb GS    5595
 PDE   2007   01 13 060951.33  45.98  153.83  10 5.00 mb GS    5691
 PDE   2007   01 13 064424.08  46.69  155.04  10 5.30 mb GS    5573
 PDE   2007   01 13 082025.28  45.93  154.34  10 5.30 mb GS    5673
 PDE   2007   01 13 091831.70  45.57  153.76  10 5.80 mb GS    5731
 PDE   2007   01 13 093759.72  46.76  156.37  10 5.40 mb GS    5504
 PDE   2007   01 13 095100.13  21.15  121.53  70 5.10 mb GS    9512
 PDE   2007   01 13 121003.17  45.78  154.05  10 5.00 mb GS    5699
 PDE   2007   01 13 123228.37  46.90  155.30  10 5.00 mb GS    5542
 PDE   2007   01 13 173706.31  46.91  156.28  10 6.00 Mw CMT   5495
 PDE   2007   01 13 193732.65  47.05  155.53  10 5.60 mb GS    5518
 PDE   2007   01 13 201742.01 -21.45  169.68  35 5.30 Mw CMT  11379
 PDE   2007   01 13 234011.50  46.70  156.58  10 5.20 mb GS    5500
 PDE   2007   01 14 002342.82  47.54  155.61  10 5.00 mb GS    5471
 PDE   2007   01 14 004736.53   4.59  126.18  35 5.00 mb GS   10991
 PDE   2007   01 14 025751.87  45.69  154.02  10 5.10 mb GS    5708
 PDE   2007   01 14 140800.68 -28.68   74.18  10 5.00 mb GS   16187
 PDE   2007   01 14 154405.71  46.07  154.51  10 5.10 mb GS    5652
 PDE   2007   01 15 011818.46  46.11  154.49  10 5.00 mb GS    5650
 PDE   2007   01 15 064947.86 -41.25  -86.96  10 5.20 Mw CMT  11753
 PDE   2007   01 15 075811.99 -60.92  -34.07  10 5.50 Mw CMT  15263
 PDE   2007   01 15 081752.56 -62.24  154.90  10 5.40 Mw CMT  15740
 PDE   2007   01 15 083449.04 -61.35  -34.25  10 5.00 mb GS   15292
 PDE   2007   01 15 101129.50   8.78  -39.74  10 5.20 Mw CMT   8368
 PDE   2007   01 15 112433.21  35.32   65.49  10 5.00 mb GS    9171
 PDE   2007   01 15 181759.25  34.89  138.64 170 5.90 Mw S     7417
 PDE   2007   01 15 190241.46 -21.70  170.46  94 5.20 Mw CMT  11366
 PDE   2007   01 15 205944.63   5.72  126.53  55 5.10 mb GS   10861
 PDE   2007   01 15 211940.06  -4.61 -105.14  10 5.60 Mw S     7479
 PDE   2007   01 16 001437.34  -4.74 -106.11  10 5.30 Mw CMT   7485
 PDE   2007   01 16 015312.11 -15.18 -174.36  35 5.10 Mw CMT  10026
 PDE   2007   01 16 031037.11  24.00  122.49  35 5.40 ML AP    9183
 PDE   2007   01 16 121813.18  -3.45  148.95  35 5.00 Mw CMT  10666
 PDE   2007   01 16 125236.96  41.18  142.71  29 5.20 mb GS    6635
 PDE   2007   01 16 180618.14   2.61  126.24  64 5.60 Mw CMT  11188
 PDE   2007   01 16 192551.55  46.92  155.96  10 5.10 mb GS    5509
 PDE   2007   01 17 042826.66  -3.32  139.83 100 6.00 Mw S    11119
 PDE   2007   01 17 060339.56 -56.14 -143.71  10 5.20 Mw CMT  13383
 PDE   2007   01 17 075840.97   1.98   89.69  10 5.00 mb GS   12567
 PDE   2007   01 17 094550.36  45.92  154.39  11 5.40 mb GS    5671
 PDE   2007   01 17 160846.20 -16.63  -73.38  41 5.20 mb GS    9473
 PDE   2007   01 17 183414.93 -57.91  -64.53   6 5.60 mb GS   14018
 PDE   2007   01 17 231849.80  10.12   58.71   8 6.20 Mw CMT  11936
 PDE   2007   01 18 033414.20 -39.56  175.86  51 5.30 ML EL   12872
 PDE   2007   01 18 054051.29   9.63  126.23  87 5.20 mb GS   10481
 PDE   2007   01 18 152718.32  -5.49  101.45  17 5.90 Mw S    13025
 PDE   2007   01 18 223236.33  22.33  -45.09  10 5.20 Mw CMT   6780
 PDE   2007   01 19 014314.07  12.99  -89.13  55 5.40 Mw CMT   5854
 PDE   2007   01 19 024423.42  -9.99  109.67  25 5.90 mb GS   13186
 PDE   2007   01 19 144631.84 -32.33 -177.82  10 5.10 mb GS   11898
 PDE   2007   01 19 144727.38  -9.57 -109.45  10 5.20 Mw CMT   7996
 PDE   2007   01 20 024550.07  -5.53  130.43 139 5.90 mb GS   11802
 PDE   2007   01 20 062104.56 -55.42  -29.53  10 6.20 Ms GS   14983
 PDE   2007   01 21 073857     39.59   42.86   3 5.20 Mw CMT   8519
 PDE   2007   01 21 112745.06   1.07  126.28  22 7.50 Mw CMT  11341
 PDE   2007   01 21 114454.33 -11.37  166.33 110 5.10 mb GS   10552
 PDE   2007   01 21 114559.83   1.00  125.90  10 5.40 mb GS   11366
 PDE   2007   01 21 114733.04   1.14  126.26  10 5.30 mb GS   11335
 PDE   2007   01 21 115411.21   0.95  125.89  10 5.60 mb GS   11370
 PDE   2007   01 21 120208.08   1.14  126.12  10 5.20 mb GS   11341
 PDE   2007   01 21 121045.73   1.01  126.06  10 5.20 mb GS   11357
 PDE   2007   01 21 121807.94   0.95  126.12  10 5.10 mb GS   11360
 PDE   2007   01 21 123235.17   1.10  126.03  10 5.50 mb GS   11350
 PDE   2007   01 21 130832.33   0.88  126.11  10 5.00 mb GS   11367
 PDE   2007   01 21 131507.85   1.00  126.01  10 5.10 mb GS   11360
 PDE   2007   01 21 132156.66   1.11  126.45  10 5.00 mb GS   11329
 PDE   2007   01 21 134352.79   0.96  126.21  10 5.10 mb GS   11355
 PDE   2007   01 21 135308.38  21.36 -106.30  10 5.30 MD NM    4612
 PDE   2007   01 21 135516.59   1.11  126.40  10 5.40 mb GS   11331
 PDE   2007   01 21 141140.09   1.27  126.29  10 5.10 mb GS   11320
 PDE   2007   01 21 142749.42   0.90  126.00  10 5.40 mb GS   11370
 PDE   2007   01 21 143554.89   1.20  125.99  10 5.00 mb GS   11341
 PDE   2007   01 21 143918.15   1.04  125.97  10 5.50 mb GS   11358
 PDE   2007   01 21 150316.37 -55.76  -27.02  47 5.60 mb GS   15117
 PDE   2007   01 21 150411.35   1.00  125.93  10 5.30 mb GS   11364
 PDE   2007   01 21 151236.39   1.01  126.04  10 5.10 mb GS   11357
 PDE   2007   01 21 152917.23   1.08  126.17  10 5.10 mb GS   11345
 PDE   2007   01 21 173255.52   1.06  126.35  23 6.20 Mw CMT  11339
 PDE   2007   01 21 173711.75   1.04  126.40  10 5.20 mb GS   11338
 PDE   2007   01 21 195050.26   1.04  125.85  10 5.50 mb GS   11363
 PDE   2007   01 21 195950.29   1.01  126.31  10 5.20 mb GS   11345
 PDE   2007   01 21 202720.30   1.34  127.21  10 5.00 mb GS   11271
 PDE   2007   01 21 205239.18   1.11  126.33  10 5.00 mb GS   11334
 PDE   2007   01 21 210301.08   1.08  125.88  10 5.30 Mw CMT  11358
 PDE   2007   01 21 212142.73   1.01  125.97  10 5.00 mb GS   11360
 PDE   2007   01 21 222115.27   0.99  126.28  10 5.10 Mw CMT  11349
 PDE   2007   01 21 234509.23   1.02  126.26  10 5.50 mb GS   11346
 PDE   2007   01 22 002251.70   0.94  126.09  10 5.40 mb GS   11362
 PDE   2007   01 22 003319.81   0.95  126.07  10 5.00 mb GS   11363
 PDE   2007   01 22 010640.69   0.98  126.26  10 5.20 mb GS   11351
 PDE   2007   01 22 042707.83  -2.55  136.34  35 5.70 Mw CMT  11217
 PDE   2007   01 22 043318.88  -2.50  136.33  35 5.90 Mw CMT  11213
 PDE   2007   01 22 102254.25  51.60 -173.58  43 5.00 mb GS    3630
 PDE   2007   01 22 123521.28   0.94  126.02  10 5.00 mb GS   11366
 PDE   2007   01 22 164433.80   2.82   95.81  24 5.30 Mw CMT  12320
 PDE   2007   01 22 164450.78   0.40  126.24  10 5.30 Mw CMT  11410
 PDE   2007   01 22 181444.32   1.13  126.37  10 5.20 mb GS   11331
 PDE   2007   01 22 192549.47  -3.32  146.35  10 5.80 Mw CMT  10787
 PDE   2007   01 23 041607.37 -43.14   41.65  10 5.50 Mw CMT  17351
 PDE   2007   01 23 043719.37  -6.82  130.03 112 5.80 mb GS   11950
 PDE   2007   01 23 113449.46  46.17  153.15  10 5.40 Mw CMT   5705
 PDE   2007   01 23 114441.06   1.22  126.06  10 5.50 Mw CMT  11336
 PDE   2007   01 23 121635.98  -3.03  136.18  10 5.10 Mw CMT  11273
 PDE   2007   01 23 171620.88 -13.10  167.05 188 5.90 mb GS   10686
 PDE   2007   01 23 204016.30 -45.31  -72.19  32 5.30 Mw CMT  12523
 PDE   2007   01 23 224625.67 -55.31  -29.38  35 5.60 Mw CMT  14980
 PDE   2007   01 24 015330.79  -2.37  128.06  35 5.00 Mw CMT  11602
 PDE   2007   01 24 084027.86   1.02  125.97  10 5.60 Mw CMT  11360
 PDE   2007   01 24 093431.83   1.12  126.11  19 5.40 Mw CMT  11344
 PDE   2007   01 24 112745.76   1.11  126.33  10 5.00 mb GS   11335
 PDE   2007   01 24 143527.15 -53.24  159.47  10 5.00 Mw CMT  14828
 PDE   2007   01 25 000655.30  15.02  -92.44 118 5.10 Mw CMT   5551
 PDE   2007   01 25 003600.22   1.08  126.09  10 5.00 mb GS   11348
 PDE   2007   01 25 042641.34  -2.70  136.39  50 5.00 Mw CMT  11230
 PDE   2007   01 25 062007.17  -3.26  135.08  10 5.10 Mw CMT  11350
 PDE   2007   01 25 105917.65  22.56  121.93  36 6.00 Mw S     9352
 PDE   2007   01 25 135244.90 -16.52  176.63  30 5.00 Mw CMT  10564
 PDE   2007   01 25 151836.03   1.73   97.11  30 5.30 mb GS   12399
 PDE   2007   01 25 212916.97 -59.17  157.95  10 5.40 Mw CMT  15382
 PDE   2007   01 25 235749.26  51.77 -175.42  72 5.00 mb GS    3711
 PDE   2007   01 26 023425.72 -19.87 -174.48  43 5.10 Mw CMT  10507
 PDE   2007   01 26 074604.52  34.41  141.43  54 5.10 mb GS    7339
 PDE   2007   01 26 114429      1.14  126.13  10 5.30 mb GS   11341
 PDE   2007   01 26 210046.02   9.12  -40.48  10 5.10 Mw CMT   8297
 PDE   2007   01 26 221228.43  14.38  145.32 136 5.20 Mw CMT   9104
 PDE   2007   01 27 001557.64 -59.83  150.37  10 5.10 mb GS   15744
 PDE   2007   01 27 011924.46   1.31  126.53  10 5.00 Mw CMT  11305
 PDE   2007   01 27 070037.13   1.28  126.56  10 5.50 Mw CMT  11307
 PDE   2007   01 27 102146.76   1.28  126.20  10 5.60 Mw CMT  11323
 PDE   2007   01 27 102419.80 -36.65  177.13  12 5.00 ML EL   12535
 PDE   2007   01 27 110416.85   1.22  126.20  10 5.00 mb GS   11329
 PDE   2007   01 27 154920.80  21.95  143.08  10 5.00 mb GS    8473
 PDE   2007   01 28 025320.85 -45.16  -72.32  49 5.20 Mw CMT  12503
 PDE   2007   01 28 050656.62   1.22  126.50  10 5.60 Mw CMT  11316
 PDE   2007   01 28 081231.10 -17.75  179.87 567 5.60 Mw CMT  10539
 PDE   2007   01 28 120905.50   1.01  126.31  10 5.80 Mw CMT  11345
 PDE   2007   01 28 153446.86 -54.07 -133.57  10 5.40 mb GS   13019
 PDE   2007   01 28 171650.02  -6.60  130.37 106 5.30 mb GS   11912
 PDE   2007   01 29 013521.19  -2.13  139.01  28 5.20 Mw CMT  11043
 PDE   2007   01 29 074741.68   4.60  -72.61 436 5.30 Mw CMT   7282
 PDE   2007   01 29 194834.44   8.36   93.60  30 5.40 Mw CMT  11786
 PDE   2007   01 30 014833.47   1.43  126.17  18 5.40 Mw CMT  11310
 PDE   2007   01 30 023510.60 -37.86   78.00  10 5.20 Mw CMT  17126
 PDE   2007   01 30 045450.57 -54.74  146.30  11 6.90 Ms GS   15534
 PDE   2007   01 30 080909.40 -55.50  146.84  10 5.10 mb GS   15569
 PDE   2007   01 30 213744.37  20.98  144.71  20 6.60 Mw CMT   8489
 PDE   2007   01 31 021426.13 -19.21  169.56 290 5.40 Mw CMT  11164
 PDE   2007   01 31 031552.29 -29.78 -178.00  34 6.50 Mw CMT  11651
 PDE   2007   01 31 065125.09 -11.42  166.20  77 5.50 Mw CMT  10564
 PDE   2007   01 31 065549.30 -11.49  166.28  81 5.10 mb GS   10567
 PDE   2007   01 31 105233.97  39.82   70.26  10 5.20 Mw CMT   8662
 PDE   2007   01 31 164031.07  -9.74  159.68  23 5.20 mb GS   10729
 PDE   2007   01 31 203134.84  -7.82  107.19  51 5.60 mb GS   13060
 PDE   2007   02 01 001426.05 -37.65   78.07  10 5.50 Mw CMT  17103
 PDE   2007   02 01 104326.72   1.22  126.35  10 5.50 mb GS   11323
 PDE   2007   02 01 124527.46   1.00  126.00  10 5.00 mb GS   11360
 PDE   2007   02 02 120628     39.50   20.67   5 5.00 ML HE    8024
 PDE   2007   02 02 150221.06 -31.02 -177.87  90 5.00 mb GS   11770
 PDE   2007   02 02 220247.25  38.97   71.37  35 5.20 mb GS    8753
 PDE   2007   02 02 223218.79  37.69   91.77  10 5.40 Mw CMT   8658
 PDE   2007   02 03 052809.21 -19.87 -176.56 266 5.10 Mw CMT  10595
 PDE   2007   02 03 090015.79 -45.24  -72.24  10 5.30 Mw CMT  12514
 PDE   2007   02 03 110323.05  15.07  146.87  10 5.00 mb GS    8959
 PDE   2007   02 03 134323.08  35.81   22.43  59 5.40 Mw CMT   8462
 PDE   2007   02 03 164737.17 -15.13 -174.35  10 5.00 Mw CMT  10022
 PDE   2007   02 03 193122.34  13.87  145.21  97 5.30 mb GS    9160
 PDE   2007   02 04 011923.44  -0.57  127.47  30 5.20 mb GS   11449
 PDE   2007   02 04 033319.39  35.34  -35.94  10 5.60 Mw S     6028
 PDE   2007   02 04 094611.85  51.85 -176.26  46 5.00 mb GS    3747
 PDE   2007   02 04 101352.04 -17.23  -69.10 172 5.10 Mw CMT   9682
 PDE   2007   02 04 191425.36 -39.21  176.36  65 5.30 ML EL   12817
 PDE   2007   02 04 205659.13  19.37  -78.52  10 6.20 Mw S     5530
 PDE   2007   02 04 211746.79 -55.88 -122.72  10 6.20 Mw CMT  13134
 PDE   2007   02 04 225254.37 -55.79 -123.45  10 5.60 Mw CMT  13128
 PDE   2007   02 05 064257.97  49.43  155.41  10 5.20 Mw CMT   5315
 PDE   2007   02 05 095551.10 -20.61 -175.65  10 5.80 Mw CMT  10631
 PDE   2007   02 05 101624.23 -20.68 -175.49  15 5.60 mb GS   10631
 PDE   2007   02 05 101923.98 -20.67 -175.47  15 5.50 Mw CMT  10630
 PDE   2007   02 05 163701.99  -1.40  -14.08  10 5.10 Mw CMT  10681
 PDE   2007   02 05 205806.37 -59.92  -28.23 112 5.20 mb GS   15405
 PDE   2007   02 07 022923.15 -21.00 -178.70 618 5.30 Mw CMT  10801
 PDE   2007   02 07 053522.81 -33.67 -178.91  19 5.20 mb GS   12077
 PDE   2007   02 07 154224.70 -10.20  123.72  10 5.00 mb GS   12588
 PDE   2007   02 07 185500.36 -17.71  -71.08  63 5.50 mb GS    9664
 PDE   2007   02 08 015454.50   2.70   95.65  30 5.10 mb GS   12337
 PDE   2007   02 08 071504.71  46.48  153.24  10 5.50 mb GS    5674
 PDE   2007   02 08 102157.07   8.69  -39.47  10 5.20 mb GS    8391
 PDE   2007   02 08 120535.90   8.76  -39.42  10 5.10 Mw CMT   8386
 PDE   2007   02 08 130014.79   9.14  -39.47  10 5.00 Mw CMT   8346
 PDE   2007   02 08 143210.04   8.16  -39.28  10 5.10 Mw CMT   8452
 PDE   2007   02 08 162808.03   8.60  -39.43  10 5.30 mb GS    8402
 PDE   2007   02 08 163024.29  -9.01  118.82  25 5.10 Mw CMT  12694
 PDE   2007   02 09 022255     38.39   39.04   2 5.50 Mw CMT   8584
 PDE   2007   02 09 032512.45 -31.29 -177.65 104 5.00 mb GS   11788
 PDE   2007   02 09 135101.40 -36.31  177.53 303 5.10 UK EL   12485
 PDE   2007   02 10 060302.48 -42.98  -71.56 157 5.50 Mw CMT  12296
 PDE   2007   02 10 220046.57  -4.84 -106.01  10 5.20 Mw CMT   7497
 PDE   2007   02 11 043918.39  36.73   72.97  53 5.10 Mw CMT   8993
 PDE   2007   02 11 090907.73  21.34 -106.32  41 5.20 mb GS    4614
 PDE   2007   02 11 104735.01   6.18   94.40  67 5.60 mb GS   11999
 PDE   2007   02 11 153448.73  43.48 -127.36  10 5.00 Mw CMT   2272
 PDE   2007   02 11 210302.76   5.54  126.28  66 5.00 mb GS   10891
 PDE   2007   02 12 020856.04  -5.00  144.98  42 5.90 Mw CMT  11022
 PDE   2007   02 12 044409.81   1.51   97.11  30 5.00 mb GS   12423
 PDE   2007   02 12 103522.75  35.80  -10.31  20 6.20 mb GS    7225
 PDE   2007   02 12 124531.70   5.56  126.07  24 6.10 Mw CMT  10898
 PDE   2007   02 12 203330.58  47.71  154.32  10 5.10 mb GS    5515
 PDE   2007   02 13 005819.44  -4.77  -12.44  10 5.00 mb GS   11095
 PDE   2007   02 13 105658.38  -6.66  154.65  33 5.40 Mw CMT  10685
 PDE   2007   02 13 145643.48  -1.42  -77.78 174 5.60 Mw CMT   7728
 PDE   2007   02 13 183849.75  13.44  -91.06  44 5.00 Mw CMT   5755
 PDE   2007   02 13 192214.64  -0.44  124.19  84 5.50 mb GS   11588
 PDE   2007   02 13 200306.93  -5.67  127.31  10 5.30 Mw CMT  11967
 PDE   2007   02 14 012907.19 -29.59 -112.05  10 5.90 Mw S    10198
 PDE   2007   02 14 014658.90  46.54  155.26  10 5.40 mb GS    5575
 PDE   2007   02 14 024158.06  36.09  -34.09  10 5.10 Mw CMT   6054
 PDE   2007   02 14 033030.93  22.14  121.09  10 5.00 ML AP    9429
 PDE   2007   02 14 081009.32  33.83  142.35  38 5.10 mb GS    7353
 PDE   2007   02 14 112237.46   3.19  126.62  65 5.00 Mw CMT  11112
 PDE   2007   02 14 142147.60 -19.59  -69.82  53 5.60 Mw S     9903
 PDE   2007   02 14 193757.35  -5.34  -77.22  41 5.00 mb GS    8159
 PDE   2007   02 14 194958.70   0.43   97.31  16 5.70 Ms GS   12532
 PDE   2007   02 14 201157.53   5.21   94.26  30 5.30 mb GS   12107
 PDE   2007   02 14 204631.93   0.64   97.23   4 5.60 mb GS   12512
 PDE   2007   02 14 221258.55  43.52 -127.45  10 5.20 mb GS    2271
 PDE   2007   02 15 083140.03 -22.12  171.91  35 5.00 Mw CMT  11339
 PDE   2007   02 15 102333.41 -32.01 -177.50  10 5.30 Mw CMT  11854
 PDE   2007   02 15 102729.72 -32.06 -177.53  27 5.40 Mw CMT  11860
 PDE   2007   02 15 153836    -25.97  113.28  19 5.30 ML UST  14637
 PDE   2007   02 15 162745.46 -41.51  -89.20  10 5.00 Mw CMT  11740
 PDE   2007   02 15 182904.38  11.81  141.87  61 5.40 Mw S     9527
 PDE   2007   02 16 011528.18 -55.03  -26.46  35 5.10 mb GS   15079
 PDE   2007   02 16 082937.11 -35.08   53.98  10 5.00 Mw CMT  16850
 PDE   2007   02 17 000256.76  41.79  143.55  31 6.00 Mw S     6540
 PDE   2007   02 17 002227.49  41.77  143.60  35 5.30 Mw CMT   6540
 PDE   2007   02 17 032312.71  11.47  143.27   9 5.00 Mw CMT   9491
 PDE   2007   02 17 040152.83  -3.60  151.23 444 5.10 Mw CMT  10563
 PDE   2007   02 17 063120.08  -7.22  155.88  37 5.00 mb GS   10678
 PDE   2007   02 17 074333.68  -7.32  155.86  28 5.70 Mw CMT  10688
 PDE   2007   02 17 074749.58  -7.26  155.89  28 5.60 Mw CMT  10680
 PDE   2007   02 17 075644.81  -7.29  155.88  31 5.00 mb GS   10684
 PDE   2007   02 17 091834.35  -7.25  155.85  38 5.30 Mw CMT  10682
 PDE   2007   02 17 122449.48  -7.12  155.83  10 5.00 Mw CMT  10671
 PDE   2007   02 17 124312.91  -7.31  155.76  34 5.70 Mw CMT  10693
 PDE   2007   02 17 234145.04  -4.09  154.45 483 5.50 Mw CMT  10446
 PDE   2007   02 18 104523.99   1.07   97.37  30 5.10 Mw CMT  12462
 PDE   2007   02 18 133907.42  -6.62  154.81  17 5.00 Mw CMT  10674
 PDE   2007   02 18 171331.96 -29.80 -177.69  10 5.10 mb GS   11640
 PDE   2007   02 18 172944.70 -20.20  173.01  43 5.20 Mw CMT  11099
 PDE   2007   02 18 210500.38  21.68  120.48  35 5.30 Mw CMT   9500
 PDE   2007   02 18 213744.78   6.34  -82.71  26 5.70 Mw S     6750
 PDE   2007   02 19 023343.01   1.75   30.76  19 5.60 mb GS   12313
 PDE   2007   02 19 045538.29 -15.36 -173.62  35 5.10 Mw CMT  10014
 PDE   2007   02 19 111303.49   5.56  126.24  29 5.50 mb GS   10891
 PDE   2007   02 19 114222.72  12.52  141.69  25 5.20 mb GS    9466
 PDE   2007   02 19 141450.76  49.18  -28.41  10 5.30 Mw CMT   5169
 PDE   2007   02 19 143334.56 -20.21  173.09  20 5.80 Mw S    11095
 PDE   2007   02 19 151322.33  -4.39  102.98  54 5.40 mb GS   12857
 PDE   2007   02 19 192410.63 -23.05  -70.47  10 5.50 mb GS   10243
 PDE   2007   02 20 080425.28  -1.03  126.98  12 6.70 Mw CMT  11519
 PDE   2007   02 20 092318.03  27.56   56.57  22 5.00 mb GS    9999
 PDE   2007   02 20 131438.48  -1.13  127.20  15 5.00 mb GS   11519
 PDE   2007   02 20 142526.34  -1.03  126.97  11 6.00 Mw CMT  11519
 PDE   2007   02 20 172511.40 -26.90  -71.04  25 5.10 ML UC   10628
 PDE   2007   02 20 231232.62 -11.23  118.93  40 5.20 Mw CMT  12913
 PDE   2007   02 21 021955.84  -0.94  127.19  28 5.60 mb GS   11500
 PDE   2007   02 21 044151.47  -0.88  127.27  10 5.00 mb GS   11490
 PDE   2007   02 21 053621.40 -26.89  -71.07  31 5.00 ML UC   10626
 PDE   2007   02 21 110528.63  38.32   39.28   6 5.70 Mw S     8597
 PDE   2007   02 22 011546.60 -31.80  -68.72   5 5.10 ML UC   11214
 PDE   2007   02 22 032019.21  -1.10  127.21  24 5.10 mb GS   11515
 PDE   2007   02 22 073318.96 -24.02 -179.78 516 5.00 mb GS   11151
 PDE   2007   02 22 213556.95 -17.03 -172.98  10 5.20 mb GS   10156
 PDE   2007   02 23 071218.23  25.95 -110.52  10 5.20 Mw CMT   4071
 PDE   2007   02 23 073012.14  25.99 -110.50  10 5.20 Mw CMT   4068
 PDE   2007   02 23 141228.51  -1.44  -77.97 168 5.00 mb GS    7723
 PDE   2007   02 23 195548.60 -45.34  -72.32  25 5.70 Mw CMT  12522
 PDE   2007   02 24 015357.72 -41.24  -85.98  10 5.10 Mw CMT  11770
 PDE   2007   02 24 023623.65  -7.01  -80.49  23 6.30 Mw S     8234
 PDE   2007   02 24 040529.72   1.63  116.14  11 5.30 Mw CMT  11729
 PDE   2007   02 24 073333.01   1.10  -85.21  23 5.50 Mw CMT   7234
 PDE   2007   02 24 080758.61 -20.14  173.08  29 5.50 Mw CMT  11088
 PDE   2007   02 24 081723.31 -20.13  173.03  56 5.30 Mw CMT  11090
 PDE   2007   02 24 103133.98   1.05  -85.26  10 5.10 Mw CMT   7237
 PDE   2007   02 24 133304.80 -21.49  -68.03 126 5.00 mb GS   10164
 PDE   2007   02 24 161926.82  -8.15  156.31  10 5.10 mb GS   10746
 PDE   2007   02 24 185117.28  -8.10  156.40  30 5.00 mb GS   10737
 PDE   2007   02 24 185343.55  -0.99  126.91  38 5.20 mb GS   11518
 PDE   2007   02 24 194734.73  46.74  152.52  10 5.40 mb GS    5684
 PDE   2007   02 24 234342.03  51.45 -178.59  35 5.40 mb GS    3895
 PDE   2007   02 25 011833.67  26.00 -110.46  10 5.20 Mw CMT   4066
 PDE   2007   02 25 014941.46  33.19   90.66  35 5.30 Mw CMT   9166
 PDE   2007   02 25 111952.67 -27.82  -67.38 124 5.00 UK UC   10844
 PDE   2007   02 25 114125.29  33.09  136.87  41 5.00 mb GS    7671
 PDE   2007   02 25 143235.78  60.80  166.57  10 5.00 mb GS    3921
 PDE   2007   02 25 150041.15  26.15 -110.42  10 5.90 Mw S     4051
 PDE   2007   02 25 150349.14  26.03 -110.61  10 5.20 mb GS    4062
 PDE   2007   02 25 201343.81  73.27    7.88  10 5.10 Mw CMT   4351
 PDE   2007   02 25 204727.24 -29.13 -177.13  10 5.70 Mw CMT  11550
 PDE   2007   02 25 215313.56  73.20    6.78  10 5.40 Mw CMT   4336
 PDE   2007   02 26 001924.57  -7.17  -80.61  35 5.30 Mw CMT   8248
 PDE   2007   02 26 033304.29 -28.93 -177.05  35 5.10 Mw CMT  11527
 PDE   2007   02 26 084859.39   9.97   42.88  10 5.00 Mw CMT  11743
 PDE   2007   02 26 090122.59 -15.97  167.52  51 5.50 Mw CMT  10944
 PDE   2007   02 26 121954.48  40.64 -124.87   0 5.40 Mw CMT   2525
 PDE   2007   02 26 175826.89 -20.16  -68.94 100 5.10 mb GS    9994
 PDE   2007   02 26 205649.08 -55.42 -128.71  10 5.20 Mw CMT  13121
 PDE   2007   02 26 234953.73 -44.77   35.49  10 5.70 Mw S    17256
 PDE   2007   02 27 004415.03 -20.12  172.93  57 5.20 Mw CMT  11093
 PDE   2007   02 27 013536.35 -41.60   80.00  10 5.40 Mw CMT  17480
 PDE   2007   02 27 034712.11 -44.84   35.12  10 5.10 Mw CMT  17246
 PDE   2007   02 27 055150.46  63.29  -23.93  10 5.00 Mw CMT   4229
 PDE   2007   02 27 094240.61  17.11  -61.49  51 5.10 MD SPR   6481
 PDE   2007   02 27 161351.34 -35.94 -106.25  10 5.20 Mw CMT  10925
 PDE   2007   02 27 170103.50 -16.46 -172.03   8 5.30 mb GS   10058
 PDE   2007   02 27 200809.04  25.98 -110.46  10 5.00 Mw CMT   4069
 PDE   2007   02 27 222812.30  28.10   55.08   6 5.00 Mw CMT   9928
 PDE   2007   02 28 092946.66   2.48  124.42 292 5.10 Mw CMT  11284
 PDE   2007   02 28 123138.96  -1.84  128.87  10 5.00 mb GS   11511
 PDE   2007   02 28 193715.82  60.93  167.12  10 5.10 mb GS    3889
 PDE   2007   02 28 231315.61 -55.24  -29.14  10 6.20 Mw S    14985
 PDE   2007   03 01 020107      3.78   96.34  74 5.60 mb GS   12203
 PDE   2007   03 01 050820.74  10.29   93.06  78 5.00 mb GS   11591
 PDE   2007   03 01 151523.85  -0.24  124.36  42 5.40 mb GS   11560
 PDE   2007   03 01 163957.54 -18.67 -173.24  26 5.00 Mw CMT  10333
 PDE   2007   03 01 224529.58  26.54  -44.58  10 5.10 Mw CMT   6405
 PDE   2007   03 01 230200.10  26.46  -44.45  10 5.30 Mw CMT   6419
 PDE   2007   03 01 230435.52  26.47  -44.45  10 5.40 Mw CMT   6418
 PDE   2007   03 01 231152.07  26.58  -44.59  10 6.00 Mw CMT   6400
 PDE   2007   03 01 234732.31 -30.78 -177.97  35 5.00 mb GS   11750
 PDE   2007   03 02 090633.63 -21.61 -177.85 383 5.20 Mw CMT  10826
 PDE   2007   03 02 130731.32 -30.88  -71.19  48 5.60 mb GS   11040
 PDE   2007   03 03 040425.98  -0.85  134.06  39 5.10 mb GS   11162
 PDE   2007   03 03 115426.37 -41.80  -16.11  10 5.20 mb GS   14420
 PDE   2007   03 03 172149.75  46.81  152.63  34 5.40 Mw CMT   5672
 PDE   2007   03 03 180853.29  13.80   57.09  10 5.30 Mw CMT  11521
 PDE   2007   03 03 200828.76   0.01  126.81  38 5.90 Mw CMT  11423
 PDE   2007   03 03 205208.43 -55.25 -129.34  10 5.70 Mw CMT  13108
 PDE   2007   03 04 025006.64  -5.83  152.47  37 5.30 Mw CMT  10718
 PDE   2007   03 04 070801.41 -56.01  -27.49 151 5.00 mb GS   15117
 PDE   2007   03 04 112611.98  33.79  -38.47  10 5.60 Mw S     6042
 PDE   2007   03 04 122545.94  35.27  -36.32  10 5.00 Mw CMT   6016
 PDE   2007   03 04 223144.07  -5.40  151.30  52 5.00 Mw CMT  10736
 PDE   2007   03 04 223923.88  34.49  -36.90  10 5.20 mb GS    6057
 PDE   2007   03 04 234926.20 -17.57 -173.35  35 5.10 mb GS   10226
 PDE   2007   03 05 011015.12 -30.31 -177.75  35 5.10 mb GS   11694
 PDE   2007   03 05 011549.15 -30.65 -177.56  35 5.20 mb GS   11721
 PDE   2007   03 05 151059.50  23.45  142.59  83 5.00 mb GS    8350
 PDE   2007   03 05 230918.84  -4.30  143.51 116 5.10 Mw CMT  11029
 PDE   2007   03 06 000908.29  -1.05  126.91  31 5.30 mb GS   11524
 PDE   2007   03 06 034938.90  -0.49  100.50  19 6.40 Ms GS   12531
 PDE   2007   03 06 054925.43  -0.49  100.53  11 6.30 Ms GS   12529
 PDE   2007   03 06 125306.86  -0.40  100.91  20 5.10 mb GS   12508
 PDE   2007   03 06 130512.11   2.08  -76.50  43 5.20 Mw CMT   7403
 PDE   2007   03 06 213011.65 -15.09  -74.00  93 5.30 mb GS    9292
 PDE   2007   03 07 015148.88 -61.49  159.38  10 5.00 Mw CMT  15510
 PDE   2007   03 07 020540.75 -61.18  161.25  10 5.20 Mw CMT  15414
 PDE   2007   03 07 105337.59   1.96   97.91  35 5.90 Mw S    12352
 PDE   2007   03 07 192049.87 -17.80 -178.13 517 5.40 mb GS   10455
 PDE   2007   03 07 204538.47  -5.20  123.58  10 5.00 mb GS   12095
 PDE   2007   03 07 225719.88  24.06  122.38  42 5.10 Mw CMT   9182
 PDE   2007   03 07 230124.55   3.02  -31.82  10 5.50 Mw CMT   9337
 PDE   2007   03 07 232722.28  -0.04  127.30 115 5.20 mb GS   11404
 PDE   2007   03 08 004723.76  -0.01  126.71  71 5.20 mb GS   11429
 PDE   2007   03 08 050332.26  29.91  140.20 139 6.10 Mw CMT   7831
 PDE   2007   03 08 111431.51 -58.22   -7.61  10 6.20 Mw CMT  16161
 PDE   2007   03 09 032242.76  43.22  133.53 441 6.10 mb GS    6825
 PDE   2007   03 09 072731.22 -11.43   66.25  10 5.80 mb GS   14335
 PDE   2007   03 09 103808.18  -6.36  130.17 151 5.60 Mw S    11898
 PDE   2007   03 09 174402.89  20.06  121.40  29 5.40 Mw CMT   9629
 PDE   2007   03 09 204951.74  18.19  -68.73  96 5.10 MD RN    6048
 PDE   2007   03 09 210137.80  13.26  -87.39 226 5.60 Mw S     5875